/*--------------------------------*- C++ -*----------------------------------*\
| =========                 |                                                 |
| \\      /  F ield         | OpenFOAM: The Open Source CFD Toolbox           |
|  \\    /   O peration     | Version:  v2006                                 |
|   \\  /    A nd           | Website:  www.openfoam.com                      |
|    \\/     M anipulation  |                                                 |
\*---------------------------------------------------------------------------*/
FoamFile
{
    version     2.0;
    format      ascii;
    class       volScalarField;
    object      qr;
}
// * * * * * * * * * * * * * * * * * * * * * * * * * * * * * * * * * * * * * //

dimensions      [1 0 -3 0 0 0 0];

internalField   uniform 0;

boundaryField
{
    "(maxY|minX|maxX|minY|maxZ)"
    {
        type            calculated;
        value           uniform 0;
    }

    "(air_to_floor|air_to_solid)"
    {
        type            greyDiffusiveRadiationViewFactor;
        qro             uniform 0;
        value           uniform 0;
    }
}


// ************************************************************************* //
