/*--------------------------------*- C++ -*----------------------------------*\
| =========                 |                                                 |
| \\      /  F ield         | OpenFOAM: The Open Source CFD Toolbox           |
|  \\    /   O peration     | Version:  v2412                                 |
|   \\  /    A nd           | Website:  www.openfoam.com                      |
|    \\/     M anipulation  |                                                 |
\*---------------------------------------------------------------------------*/
FoamFile
{
    version     2.0;
    format      ascii;
    class       dictionary;
    object      topoSetDict;
}
// * * * * * * * * * * * * * * * * * * * * * * * * * * * * * * * * * * * * * //

actions
(
    {
        name    central_inlet_A;
        type    faceSet;
        action  new;
        source  patchToFace;
        patch   central_inlet_A;
    }
    {
        name    inlet_couple_A;
        type    faceSet;
        action  new;
        source  patchToFace;
        patch   inlet_couple_A;
    }
);

// ************************************************************************* //
