/*--------------------------------*- C++ -*----------------------------------*\
| =========                 |                                                 |
| \\      /  F ield         | OpenFOAM: The Open Source CFD Toolbox           |
|  \\    /   O peration     | Version:  17.06                                 |
|   \\  /    A nd           | Web:      www.OpenFOAM.com                      |
|    \\/     M anipulation  |                                                 |
\*---------------------------------------------------------------------------*/
FoamFile
{
    version     2.0;
    format      ascii;
    class       dictionary;
    object      faMeshDefinition;
}
// * * * * * * * * * * * * * * * * * * * * * * * * * * * * * * * * * * * * * //


polyMeshPatches  1(window);

boundary
{
    sealing 
    {
        type patch;
        ownerPolyPatch window;
        neighbourPolyPatch fixedWall;
    }
}

// ************************************************************************** //
