/*--------------------------------*- C++ -*----------------------------------*\
| =========                 |                                                 |
| \\      /  F ield         | OpenFOAM: The Open Source CFD Toolbox           |
|  \\    /   O peration     | Version:  v2412                                 |
|   \\  /    A nd           | Website:  www.openfoam.com                      |
|    \\/     M anipulation  |                                                 |
\*---------------------------------------------------------------------------*/
FoamFile
{
    version     2.0;
    format      ascii;
    class       dictionary;
    object      dynamicMeshDict;
}
// * * * * * * * * * * * * * * * * * * * * * * * * * * * * * * * * * * * * * //

dynamicFvMesh   dynamicMotionSolverFvMesh;

motionSolverLibs (fvMotionSolvers);

//motionSolver    displacementPointSmoothing;
//displacementPointSmoothingCoeffs
//{
//    //pointSmoother           geometricElementTransform;
//    //transformationParameter 0.667;
//    pointSmoother           laplacian;
//
//    nPointSmootherIter      10;
//
//    //relaxationFactors       (1);
//    //meshQuality             {}
//    //moveInternalFaces       true;
//}

motionSolver    multiDisplacement;
solvers
{
    displacementLaplacian
    {
        motionSolver        displacementLaplacian;
        diffusivity         uniform;
    }

    displacementPointSmoothing
    {
        motionSolver        displacementPointSmoothing;
        pointSmoother       laplacian;
        nPointSmootherIter  10;
    }
}


// ************************************************************************* //
