/*--------------------------------*- C++ -*----------------------------------*\
| =========                 |                                                 |
| \\      /  F ield         | OpenFOAM: The Open Source CFD Toolbox           |
|  \\    /   O peration     | Version:  v2412                                 |
|   \\  /    A nd           | Website:  www.openfoam.com                      |
|    \\/     M anipulation  |                                                 |
\*---------------------------------------------------------------------------*/
FoamFile
{
    version     2.0;
    format      ascii;
    class       dictionary;
    object      dynamicMeshDict;
}
// * * * * * * * * * * * * * * * * * * * * * * * * * * * * * * * * * * * * * //

dynamicFvMesh   dynamicMotionSolverFvMesh;

// For point-bcs
motionSolverLibs (fvMotionSolvers);

motionSolver    displacementPointSmoothing;
displacementPointSmoothingCoeffs
{
    // Use geometricElementTransform to maintain relative sizes
    //pointSmoother           geometricElementTransform;
    //transformationParameter 0.667;
    //nPointSmootherIter      10;

    pointSmoother           laplacian;
    nPointSmootherIter      10;
    relaxationFactors       (1.0 0.8 0.6 0.4 0.2 0.0);
    meshQuality
    {
        #includeEtc "caseDicts/meshQualityDict"
    }
}

// ************************************************************************* //
