/*--------------------------------*- C++ -*----------------------------------*\
| =========                 |                                                 |
| \\      /  F ield         | OpenFOAM: The Open Source CFD Toolbox           |
|  \\    /   O peration     | Version:  v2412                                 |
|   \\  /    A nd           | Website:  www.openfoam.com                      |
|    \\/     M anipulation  |                                                 |
\*---------------------------------------------------------------------------*/
FoamFile
{
    version     2.0;
    format      ascii;
    class       dictionary;
    object      extrudeMeshDict;
}
// * * * * * * * * * * * * * * * * * * * * * * * * * * * * * * * * * * * * * //

// What to extrude:
//      patch   : from patch of another case ('sourceCase')
//      mesh    : as above but with original case included
//      surface : from externally read surface

constructFrom mesh;

// If construct from patch/mesh:
sourceCase      "<case>";

// and one of sourcePatches or sourceFaceZones (but not both):
//sourceFaceZones (someFacesZone);
sourcePatches   (".*");

// Flip surface normals before usage. Valid only for extrude from surface or
// patch.
flipNormals false;

//- Linear extrusion in point-normal direction
extrudeModel        linearNormal;

nLayers             1;

expansionRatio      1.0;

linearNormalCoeffs
{
    thickness       1e-6;
}

// Do front and back need to be merged? Usually only makes sense for 360
// degree wedges.
mergeFaces false;

// Merge small edges. Fraction of bounding box.
mergeTol 0;


// * * * * * * * * * * * * * * * * * * * * * * * * * * * * * * * * * * * * * //
