/*--------------------------------*- C++ -*----------------------------------*\
| =========                 |                                                 |
| \\      /  F ield         | OpenFOAM: The Open Source CFD Toolbox           |
|  \\    /   O peration     | Version:  v2306                                 |
|   \\  /    A nd           | Website:  www.openfoam.com                      |
|    \\/     M anipulation  |                                                 |
\*---------------------------------------------------------------------------*/
FoamFile
{
    version     2.0;
    format      ascii;
    class       dictionary;
    object      optimisationDict;
}
// * * * * * * * * * * * * * * * * * * * * * * * * * * * * * * * * * * * * * //

optimisationManager steadyOptimisation;

primalSolvers
{
    op1
    {
        active                 true;
        type                   incompressible;
        solver                 simple;
        solutionControls
        {
            nIters 1000;
            //nInitialIters 1000;
            residualControl
            {
                "p.*"       5.e-7;
                "U.*"       5.e-7;
            }
        }
    }
}

adjointManagers
{
    adjManager1
    {
        primalSolver             op1;
        adjointSolvers
        {
            as1
            {
                // choose adjoint solver
                //----------------------
                active                 true;
                type                   incompressible;
                solver                 adjointSimple;
                // manage objectives
                //------------------
                objectives
                {
                    type  incompressible;
                    objectiveNames
                    {
                        losses
                        {
                            weight          1.; 
                            type            PtLosses;
                            patches         (inlet "outlet.*");
                            normalize       true;
                        }
                    }
                }
                // ATC treatment
                //--------------
                ATCModel
                {
                    ATCModel        standard;
                }
                // solution control
                //------------------
                solutionControls
                {
                    nIters 1000;
                    residualControl
                    {
                        "pa.*"       5.e-7;
                        "Ua.*"       5.e-7;
                    }
                }
            }
            mass
            {
                // choose adjoint solver
                //----------------------
                active                 true;
                type                   incompressible;
                solver                 adjointSimple;
                isConstraint           true;
                // manage objectives
                //------------------
                objectives
                {
                    type  incompressible;
                    objectiveNames
                    {
                        mass
                        {
                            weight            1.; 
                            type              flowRatePartition;
                            inletPatches      (inlet);
                            outletPatches     (outlet outlet-right);
                            targetPercentages (0.5 0.5);
                            normalize         true;
                            target            1.e-5;
                        }
                    }
                }
                // ATC treatment
                //--------------
                ATCModel
                {
                    ATCModel        standard;
                    extraConvection 0;
                    nSmooth         0;
                    zeroATCPatchTypes ();
                    maskType        faceCells;
                }
                // solution control
                //------------------
                solutionControls
                {
                    nIters 2000;
                    printMaxMags true;
                    residualControl
                    {
                        "pa.*"       5.e-7;
                        "Ua.*"       5.e-7;
                    }
                }
            }
            vol
            {
                // choose adjoint solver
                //----------------------
                active                 true;
                type                   null;
                isConstraint           true;
                // manage objectives
                //------------------
                objectives
                {
                    type  geometric;
                    objectiveNames
                    {
                        vol
                        {
                            weight         -1.; 
                            type            topOSolidVolume;
                            percentage
                            {
                                type scale;
                                scale
                                {
                                    type      stepRamp;
                                    start     0;
                                    duration  90;
                                    interval  1;
                                }
                                value
                                {
                                    type constant;
                                    value constant 0.538;
                                }
                            }
                        }
                    }
                }
            }
        }
    }
}

optimisation
{
    designVariables
    {
        type dynamicTopO;
        sensitivityType topO;
        marchingCoeffs
        {
            seedPatches  (designWall);
            marchingStep 2;
        }
        fixedZeroPorousZones   (IEntranceSet OEntranceSet OREntranceSet);
        regularisation
        {
            regularise     true;
            growFromWalls  true;
            meanRadiusMult 20;
            function tanh;
            b 30;
        }
        betaMax    2500;
        /*
        // Alternative definition through Darcy
        betaMaxType Darcy;
        DarcyCoeffs
        {
            inletPatches (inlet);
            Darcy 1.e-05; // default value
        }
        */
    }
    updateMethod
    {
        method MMA;
        eta 1;
    }
}

// ************************************************************************* //
