/*--------------------------------*- C++ -*----------------------------------*\
| =========                 |                                                 |
| \\      /  F ield         | OpenFOAM: The Open Source CFD Toolbox           |
|  \\    /   O peration     | Version:  v2312                                 |
|   \\  /    A nd           | Website:  www.openfoam.com                      |
|    \\/     M anipulation  |                                                 |
\*---------------------------------------------------------------------------*/
FoamFile
{
    version     2.0;
    format      ascii;
    class       dictionary;
    note        "mesh decomposition control dictionary";
    object      decomposeParDict;
}
// * * * * * * * * * * * * * * * * * * * * * * * * * * * * * * * * * * * * * //

//- The total number of domains (mandatory)
numberOfSubdomains  20;

//- The decomposition method (mandatory)
method          scotch;

constraints
{
    patches
    {
        //- Keep owner and neighbour on same processor for faces in patches
        //  (only makes sense for cyclic patches and cyclicAMI)
        type    preservePatches;
        patches (cyclic);
    }
}

// ************************************************************************* //
