/*--------------------------------*- C++ -*----------------------------------*\
| =========                 |                                                 |
| \\      /  F ield         | OpenFOAM: The Open Source CFD Toolbox           |
|  \\    /   O peration     | Version:  v2006                                 |
|   \\  /    A nd           | Website:  www.openfoam.com                      |
|    \\/     M anipulation  |                                                 |
\*---------------------------------------------------------------------------*/
FoamFile
{
    version     2.0;
    format      ascii;
    class       dictionary;
    object      extrudeMeshDict;
}
// * * * * * * * * * * * * * * * * * * * * * * * * * * * * * * * * * * * * * //

constructFrom surface;

// If construct from surface:
surface "constant/triSurface/cylinder.vtk";

// Flip surface normals before usage. Valid only for extrude from surface or
// patch.
flipNormals         false;

//- Linear extrusion in point-normal direction
extrudeModel        linearNormal;

nLayers             10;

expansionRatio      1.02;

linearNormalCoeffs
{
    thickness       0.7;
}

// Do front and back need to be merged? Usually only makes sense for 360
// degree wedges.
mergeFaces false;

// Merge small edges. Fraction of bounding box.
mergeTol 0;


// ************************************************************************* //
