/*--------------------------------*- C++ -*----------------------------------*\
| =========                 |                                                 |
| \\      /  F ield         | OpenFOAM: The Open Source CFD Toolbox           |
|  \\    /   O peration     | Version:  v2312                                 |
|   \\  /    A nd           | Website:  www.openfoam.com                      |
|    \\/     M anipulation  |                                                 |
\*---------------------------------------------------------------------------*/
FoamFile
{
    version     2.0;
    format      ascii;
    class       dictionary;
    object      topoSetDict;
}
// * * * * * * * * * * * * * * * * * * * * * * * * * * * * * * * * * * * * * //

actions
(
    // Inlet
    {
        name    IEntranceSet;
        type    cellSet;
        action  new;
        source  boxToCell;
        sourceInfo
        {
            box (-1.0 0.0 0.0)(0.0 1.0 1.0);
        }
    }

    // Outlet
    {
        name    OEntranceSet;
        type    cellSet;
        action  new;
        source  boxToCell;
        sourceInfo
        {
            box (-1.0 -1.0 0.0)(1.0 0.0 1.0);
        }
    }

    // Outlet-right
    {
        name    OREntranceSet;
        type    cellSet;
        action  new;
        source  boxToCell;
        sourceInfo
        {
            box (1.0 0.0 0.0)(2.0 1.0 1.0);
        }
    }

    // Design space
    {
        name    designSpace;
        type    cellSet;
        action  new;
        source  boxToCell;
        sourceInfo
        {
            box (0.0 0.0 0.0)(1.0 1.0 1.0);
        }
    }
);

// ************************************************************************* //
