/*--------------------------------*- C++ -*----------------------------------*\
| =========                 |                                                 |
| \\      /  F ield         | OpenFOAM: The Open Source CFD Toolbox           |
|  \\    /   O peration     | Version:  v2012                                 |
|   \\  /    A nd           | Website:  www.openfoam.com                      |
|    \\/     M anipulation  |                                                 |
\*---------------------------------------------------------------------------*/
FoamFile
{
    version     2.0;
    format      ascii;
    class       dictionary;
    location    "constant";
    object      turbulenceProperties;
}
// * * * * * * * * * * * * * * * * * * * * * * * * * * * * * * * * * * * * * //

simulationType  RAS;

RAS
{
    RASModel    PDRkEpsilon;

    PDRkEpsilonCoeffs
    {
        Cmu             0.09;
        C1              1.44;
        C2              1.92;
        C3              -0.33;
        C5              1.5;
        C6              1.0;
        alphah          1;
        alphak          1;
        alphaEps        0.76923;
        noTurbUntil     0.0;
        LOverLobs       0.2;
        LOverMobs       0.0;
        maxLOverCellW   2.0;
        lCoef           0.35;
        bMin            0.85;
        flameFilteredG  true;
    }

    turbulence      on;

    printCoeffs     on;
}

// ************************************************************************* //
