/*--------------------------------*- C++ -*----------------------------------*\
| =========                 |                                                 |
| \\      /  F ield         | OpenFOAM: The Open Source CFD Toolbox           |
|  \\    /   O peration     | Version:  v1812                                 |
|   \\  /    A nd           | Web:      www.OpenFOAM.com                      |
|    \\/     M anipulation  |                                                 |
\*---------------------------------------------------------------------------*/
FoamFile
{
    version     2.0;
    format      ascii;
    class       dictionary;
    location    "system";
    object      fvSolution;
}
// * * * * * * * * * * * * * * * * * * * * * * * * * * * * * * * * * * * * * //

solvers
{
    pa
    {
        solver           GAMG;
        tolerance        0;
        relTol           0.01;
        smoother         DICGaussSeidel;

    }

    paFinal
    {
        $p;
        tolerance        1e-6;
        relTol           0;
    }
}

PIMPLE
{
    nOuterCorrectors    3;
    nCOrrectors         1;
    nNonOrthogonalCorrectors 0;
}




// ************************************************************************* //
