/*--------------------------------*- C++ -*----------------------------------*\
| =========                 |                                                 |
| \\      /  F ield         | OpenFOAM: The Open Source CFD Toolbox           |
|  \\    /   O peration     | Version:  v1812                                 |
|   \\  /    A nd           | Web:      www.OpenFOAM.com                      |
|    \\/     M anipulation  |                                                 |
\*---------------------------------------------------------------------------*/
FoamFile
{
    version     2.0;
    format      ascii;
    class       dictionary;
    location    "system";
    object      faSchemes;
}
// * * * * * * * * * * * * * * * * * * * * * * * * * * * * * * * * * * * * * //

ddtSchemes
{
    default Euler;
}

gradSchemes
{
    default none;//Gauss linear;
    grad(jouleHeatingSource:V_ceilingShell) Gauss linear;
}

divSchemes
{
    default             none;
}

laplacianSchemes
{
    default none;//Gauss linear corrected;
    laplacian((h_ceilingShell*jouleHeatingSource:sigma_ceilingShell),jouleHeatingSource:V_ceilingShell) Gauss linear corrected;
    laplacian((kappas*h_ceilingShell),Ts_ceilingShell) Gauss linear corrected;
}

interpolationSchemes
{
    default linear;
}

snGradSchemes
{
    default none;
}


// ************************************************************************* //
