/*--------------------------------*- C++ -*----------------------------------*\
| =========                 |                                                 |
| \\      /  F ield         | OpenFOAM: The Open Source CFD Toolbox           |
|  \\    /   O peration     | Version:  v2301                                 |
|   \\  /    A nd           | Website:  www.openfoam.com                      |
|    \\/     M anipulation  |                                                 |
\*---------------------------------------------------------------------------*/
FoamFile
{
    version     2.0;
    format      ascii;
    class       dictionary;
    object      radiationProperties;
}
// * * * * * * * * * * * * * * * * * * * * * * * * * * * * * * * * * * * * * //

radiation       on;

radiationModel  fvDOM;

fvDOMCoeffs
{
    nPhi    36;         // azimuthal angles in PI/2 on X-Y.(from Y to X)
    nTheta  2;          // polar angles in PI (from Z to X-Y plane)
    convergence 1e-5;   // convergence criteria for radiation iteration
    maxIter 3;          // maximum number of iterations
}

// Number of flow iterations per radiation iteration
solverFreq 20;

absorptionEmissionModel constantAbsorptionEmission;

constantAbsorptionEmissionCoeffs
{
    absorptivity             a [ 0 -1 0 0 0 0 0 ] 1;
    emissivity               e [ 0 -1 0 0 0 0 0 ] 1;
    E                        E [ 1 -1 -3 0 0 0 0 ] 0;
}

/*
//=> Added for v2.4.x
greyMeanAbsorptionEmissionCoeffs
{
    lookUpTableFileName     "SpeciesTable";

    EhrrCoeff                0.0;

    cGray                    1.0;

}

scatterModel    constantScatter;

constantScatterCoeffs
{
    sigma           sigma [ 0 -1 0 0 0 0 0 ] 0;
    C               C [ 0 0 0 0 0 0 0 ] 0;
}
//<==

//=> Added for v1812
transmissivityModel none;
//<==
*/

// ************************************************************************* //
