/*--------------------------------*- C++ -*----------------------------------*\
| =========                 |                                                 |
| \\      /  F ield         | OpenFOAM: The Open Source CFD Toolbox           |
|  \\    /   O peration     | Version:  v2206                                 |
|   \\  /    A nd           | Website:  www.openfoam.com                      |
|    \\/     M anipulation  |                                                 |
\*---------------------------------------------------------------------------*/
FoamFile
{
    version     2.0;
    format      ascii;
    class       dictionary;
    object      blockMeshDict;
}
// * * * * * * * * * * * * * * * * * * * * * * * * * * * * * * * * * * * * * //

//scale 0.01;

vertices
(
      (  0.5      0        -0.5) // 0
      (  1        0        -0.5) // 1
      ( 40        0        -0.5) // 2
      ( 40        0.707107 -0.5) // 3
      (  0.707107 0.707107 -0.5) // 4
      (  0.353553 0.353553 -0.5) // 5
      ( 40        5        -0.5) // 6
      (  0.707107 5        -0.5) // 7
      (  0        5        -0.5) // 8
      (  0        1        -0.5) // 9
      (  0        0.5      -0.5) //10
      ( -0.5      0        -0.5) //11
      ( -1        0        -0.5) //12
      (-20        0        -0.5) //13
      (-20        0.707107 -0.5) //14
      ( -0.707107 0.707107 -0.5) //15
      ( -0.353553 0.353553 -0.5) //16
      (-20        5        -0.5) //17
      ( -0.707107 5        -0.5) //18
      (  0.5      0         0.5) //19
      (  1        0         0.5) //20
      ( 40        0         0.5) //21
      ( 40        0.707107  0.5) //22
      (  0.707107 0.707107  0.5) //23
      (  0.353553 0.353553  0.5) //24
      ( 40        5         0.5) //25
      (  0.707107 5         0.5) //26
      (  0        5         0.5) //27
      (  0        1         0.5) //28
      (  0        0.5       0.5) //29
      ( -0.5      0         0.5) //30
      ( -1        0         0.5) //31
      (-20        0         0.5) //32
      (-20        0.707107  0.5) //33
      ( -0.707107 0.707107  0.5) //34
      ( -0.353553 0.353553  0.5) //35
      (-20        5         0.5) //36
      ( -0.707107 5         0.5) //37
);

blocks
(
    hex (5 4 9 10 24 23 28 29)     (16 10 1) simpleGrading (4      1  1)  //0
    hex (0 1 4 5 19 20 23 24)      (16 10 1) simpleGrading (4      1  1)  //1
    hex (1 2 3 4 20 21 22 23)      (120 10 1) simpleGrading (15     1  1)  //2
    hex (4 3 6 7 23 22 25 26)      (120 20 1) simpleGrading (15     7  1)  //3
    hex (9 4 7 8 28 23 26 27)      (10 20 1) simpleGrading (1      7  1)  //4
    hex (15 16 10 9 34 35 29 28)   (16 10 1) simpleGrading (0.25   1  1)  //5
    hex (12 11 16 15 31 30 35 34)  (16 10 1) simpleGrading (0.25   1  1)  //6
    hex (13 12 15 14 32 31 34 33)  (60 10 1) simpleGrading (0.0666 1  1)  //7
    hex (14 15 18 17 33 34 37 36)  (60 20 1) simpleGrading (0.0666 7  1)  //8
    hex (15 9 8 18 34 28 27 37)    (10 20 1) simpleGrading (1      7  1)  //9
);

edges
(
    arc 0 5 (0.469846 0.17101 -0.5)
    arc 5 10 (0.17101 0.469846 -0.5)
    arc 1 4 (0.939693 0.34202 -0.5)
    arc 4 9 (0.34202 0.939693 -0.5)
    arc 19 24 (0.469846 0.17101 0.5)
    arc 24 29 (0.17101 0.469846 0.5)
    arc 20 23 (0.939693 0.34202 0.5)
    arc 23 28 (0.34202 0.939693 0.5)
    arc 11 16 (-0.469846 0.17101 -0.5)
    arc 16 10 (-0.17101 0.469846 -0.5)
    arc 12 15 (-0.939693 0.34202 -0.5)
    arc 15 9 (-0.34202 0.939693 -0.5)
    arc 30 35 (-0.469846 0.17101 0.5)
    arc 35 29 (-0.17101 0.469846 0.5)
    arc 31 34 (-0.939693 0.34202 0.5)
    arc 34 28 (-0.34202 0.939693 0.5)
);

patches
(
    symmetryPlane down
    (
        (0 1 20 19)
        (1 2 21 20)
        (12 11 30 31)
        (13 12 31 32)
    )
    patch right
    (
        (2 3 22 21)
        (3 6 25 22)
    )
    patch up
    (
        (7 8 27 26)
        (6 7 26 25)
        (8 18 37 27)
        (18 17 36 37)
    )
    patch left
    (
        (14 13 32 33)
        (17 14 33 36)
    )
    wall cylinder
    (
        (10 5 24 29)
        (5 0 19 24)
        (16 10 29 35)
        (11 16 35 30)
    )
);

mergePatchPairs
(
);

// ************************************************************************* //
