/*--------------------------------*- C++ -*----------------------------------*\
| =========                 |                                                 |
| \\      /  F ield         | OpenFOAM: The Open Source CFD Toolbox           |
|  \\    /   O peration     | Version:  v2206                                 |
|   \\  /    A nd           | Website:  www.openfoam.com                      |
|    \\/     M anipulation  |                                                 |
\*---------------------------------------------------------------------------*/
FoamFile
{
    version     2.0;
    format      ascii;
    class       dictionary;
    object      fvSchemes;
}
// * * * * * * * * * * * * * * * * * * * * * * * * * * * * * * * * * * * * * //

ddtSchemes
{
    default         backward;
}

gradSchemes
{
    default          Gauss linear;
    // *** Primal ***
    gradUConv        cellLimited Gauss linear 0.5;

    // *** Adjoint ***
    gradUaConv       cellLimited Gauss linear 0.5;
}

divSchemes
{
    default                             Gauss linear;

    // *** Primal *** 
    div(phi,U)                          Gauss linearUpwind gradUConv;//Gauss linear; 

    // *** Adjoint ***
    div(-phi,Ua)                        Gauss linearUpwind gradUaConv;//Gauss linear;

    // *** Stress ***
    div((nuEff*dev(grad(U).T())))       Gauss linear;
    div((nuEff*dev(grad(Ua).T())))      Gauss linear;
}

laplacianSchemes
{
    default                          Gauss linear corrected;
}

interpolationSchemes
{
    default         linear;
    interpolate(U)  linear;
}

snGradSchemes
{
    default         corrected;
}

fluxRequired
{
    default         no;
    "p.*"             ;
    "pa.*"            ;
}

// ************************************************************************* //
