/*--------------------------------*- C++ -*----------------------------------*\
| =========                 |                                                 |
| \\      /  F ield         | OpenFOAM: The Open Source CFD Toolbox           |
|  \\    /   O peration     | Version:  2412                                  |
|   \\  /    A nd           | Website:  www.openfoam.com                      |
|    \\/     M anipulation  |                                                 |
\*---------------------------------------------------------------------------*/
FoamFile
{
    version     2.0;
    format      ascii;
    arch        "LSB;label=32;scalar=64";
    class       volScalarField;
    location    "constant";
    object      nonOrthoAngle;
}
// * * * * * * * * * * * * * * * * * * * * * * * * * * * * * * * * * * * * * //

dimensions      [0 0 0 0 0 0 0];

internalField   nonuniform List<scalar> 
38498
(
26.00768619183975
33.44616497087465
33.44616497087431
33.44616497087466
33.44616497087466
33.44616497087488
33.4461649708747
33.44616497087502
33.44616497087506
33.44616497087499
33.44616497087505
33.44616497087429
33.44616497087468
33.44616497087458
33.44616497087512
33.44616497087455
26.00768619183917
33.44616497087468
34.99062013454122
33.44616497087443
33.44616497087478
33.44616497087506
33.44616497087495
33.44616497087527
33.44616497087473
33.44616497087412
33.44616497087522
33.44616497087471
33.44616497087586
26.00768619183858
33.44616497087493
33.44616497087518
33.44616497087521
33.44616497087438
33.44616497087486
33.44616497087453
33.44616497087509
33.44616497087521
33.44616497087451
33.44616497087465
33.4461649708759
33.446164970875
33.44616497087518
33.44616497087522
33.44616497087499
33.44616497087492
33.44616497087522
33.44616497087456
33.44616497087502
33.44616497087479
33.44616497087478
33.44616497087485
33.44616497087499
33.44616497087434
33.44616497087551
26.00768619183956
33.44616497087553
33.44616497087465
33.44616497087466
33.44616497087508
33.44616497087497
33.44616497087482
34.99062013454149
33.44616497087451
34.99062013454206
33.44616497087471
33.44616497087514
33.44616497087458
26.00768619183917
33.44616497087415
33.44616497087485
33.44616497087473
33.44616497087478
33.44616497087478
33.44616497087478
33.44616497087514
33.44616497087471
34.99062013454122
33.44616497087428
33.4461649708737
33.44616497087465
33.44616497087578
33.44616497087397
33.44616497087387
26.00768619183937
33.44616497087506
33.44616497087523
33.44616497087516
33.4461649708756
33.44616497087488
33.44616497087502
33.44616497087488
33.44616497087486
33.44616497087449
33.44616497087476
33.4461649708748
33.44616497087472
33.44616497087523
33.44616497087564
33.44616497087499
33.4461649708756
33.44616497087465
33.44616497087492
33.44616497087455
33.44616497087485
33.44616497087531
33.44616497087529
33.44616497087453
33.44616497087479
33.44616497087415
26.00768619183987
33.44616497087441
33.44616497087435
33.44616497087412
33.44616497087488
33.446164970876
33.44616497087458
33.44616497087468
33.44616497087451
33.44616497087463
33.44616497087495
33.44616497087499
33.44616497087486
33.44616497087465
33.44616497087544
33.44616497087463
33.44616497087482
33.44616497087476
33.4461649708748
33.44616497087456
33.44616497087434
33.44616497087399
33.44616497087485
33.44616497087543
33.44616497087398
33.44616497087516
33.44616497087497
33.44616497087459
33.44616497087517
33.44616497087509
33.44616497087448
33.44616497087533
33.44616497087496
33.44616497087462
33.4461649708754
33.44616497087483
33.44616497087465
33.4461649708747
33.44616497087493
33.44616497087493
33.44616497087527
33.44616497087488
33.44616497087445
33.44616497087449
33.44616497087453
33.4461649708749
33.44616497087463
33.44616497087451
33.44616497087453
33.4461649708749
33.44616497087507
33.4461649708749
33.44616497087472
33.44616497087486
33.44616497087446
33.44616497087499
33.44616497087538
33.44616497087483
33.44616497087482
33.44616497087561
33.44616497087453
33.44616497087517
26.00768619183903
33.44616497087445
33.44616497087506
33.44616497087516
33.44616497087512
33.44616497087455
33.44616497087468
33.44616497087434
33.44616497087449
33.44616497087503
33.44616497087468
33.44616497087463
33.44616497087502
33.44616497087516
33.44616497087509
33.4461649708754
33.44616497087483
33.44616497087543
33.44616497087446
33.44616497087483
33.44616497087533
33.44616497087514
33.44616497087462
26.00768619183943
33.44616497087526
33.44616497087492
33.44616497087527
33.44616497087466
33.44616497087496
26.0076861918389
33.44616497087478
33.44616497087456
33.44616497087476
33.44616497087465
33.44616497087458
33.44616497087495
33.44616497087472
33.4461649708748
33.44616497087453
34.99062013454147
33.4461649708744
33.44616497087529
33.44616497087569
33.44616497087519
33.44616497087458
33.44616497087476
33.44616497087451
33.44616497087495
33.44616497087488
33.44616497087602
33.44616497087502
33.44616497087506
33.4461649708749
33.44616497087449
33.44616497087505
33.44616497087445
33.44616497087552
33.44616497087466
33.44616497087488
33.44616497087462
33.44616497087536
33.44616497087519
33.44616497087449
33.44616497087519
33.44616497087458
33.44616497087471
33.44616497087488
33.44616497087456
33.44616497087445
33.44616497087543
33.44616497087512
33.44616497087431
33.44616497087507
33.44616497087508
33.44616497087471
33.44616497087495
33.44616497087539
33.44616497087488
33.4461649708749
33.44616497087425
33.44616497087493
33.44616497087455
33.44616497087473
33.44616497087512
33.44616497087508
33.4461649708741
34.99062013454132
33.44616497087578
33.44616497087486
33.44616497087471
22.87097237601839
22.87097237601742
19.97841124373535
19.97841124373558
19.95500247976329
22.87097237601795
31.55807778216683
29.72791012012146
19.95500247976398
22.87097237601755
29.72791012012146
31.5580777821665
19.97841124373571
19.97841124373595
19.95500247976415
19.97841124373627
19.97841124373565
29.7279101201211
31.55807778216595
19.97841124373582
19.97841124373571
19.95500247976461
22.87097237601901
22.87097237601829
19.95500247976419
19.95500247976385
31.55807778216667
29.72791012012158
19.97841124373575
19.97841124373606
19.95500247976443
22.87097237601764
19.9784112437361
19.9784112437364
22.87097237601944
19.95500247976389
22.87097237601815
22.87097237601741
19.97841124373556
19.97841124373573
19.95500247976348
22.8709723760169
31.55807778216576
29.72791012012063
19.9550024797642
22.87097237601827
29.72791012012133
31.55807778216716
19.97841124373537
19.97841124373608
19.95500247976357
19.97841124373643
19.97841124373511
29.72791012012119
31.55807778216711
19.9784112437356
19.97841124373543
19.95500247976411
22.8709723760178
22.87097237601755
19.95500247976329
19.95500247976443
31.55807778216619
29.72791012012065
19.97841124373621
19.97841124373595
19.95500247976357
22.87097237601765
19.97841124373573
19.97841124373552
22.87097237601798
19.95500247976433
22.8709723760178
22.8709723760177
19.97841124373631
19.97841124373593
19.95500247976376
22.87097237601868
31.55807778216687
29.72791012012165
19.95500247976333
22.87097237601742
30.47423535971319
32.24548672101726
19.97841124373576
19.97841124373632
19.95500247976432
19.97841124373632
19.97841124373646
29.72791012012187
31.55807778216648
19.97841124373612
19.97841124373606
19.95500247976365
22.87097237601792
22.87097237601875
19.95500247976376
19.95500247976363
32.2454867210175
30.47423535971275
19.97841124373541
19.97841124373541
19.95500247976342
22.87097237601792
19.97841124373584
19.9784112437361
22.87097237601824
19.95500247976433
22.87097237601762
22.87097237601816
19.97841124373521
19.97841124373608
19.95500247976417
22.87097237601829
31.55807778216715
29.72791012012157
19.95500247976372
22.87097237601764
29.72791012012099
31.55807778216603
19.97841124373591
19.97841124373621
19.95500247976409
19.97841124373649
19.97841124373595
29.72791012012115
31.55807778216625
19.97841124373533
19.9784112437353
19.95500247976392
22.87097237601806
22.87097237601798
19.95500247976372
19.95500247976419
31.55807778216598
29.72791012012091
19.97841124373614
19.97841124373552
19.95500247976422
22.8709723760178
19.97841124373573
19.97841124373608
22.87097237601755
19.95500247976314
19.95500247976378
22.87097237601752
19.95500247976389
19.97841124373661
19.97841124373623
29.7279101201219
31.55807778216693
19.9550024797635
22.87097237601824
19.97841124373545
19.97841124373558
31.55807778216684
29.72791012012173
19.97841124373595
19.9784112437369
22.87097237601886
19.95500247976478
19.95500247976489
22.87097237601875
22.87097237601799
19.95500247976352
31.55807778216526
29.72791012012072
19.97841124373573
19.97841124373576
22.8709723760177
29.72791012012093
31.55807778216714
19.97841124373576
19.97841124373627
19.97841124373456
19.97841124373506
22.87097237601824
19.95500247976385
19.95500247976374
22.87097237601779
19.95500247976405
22.87097237601826
19.9550024797643
19.97841124373576
19.97841124373521
29.72791012012109
31.55807778216678
19.95500247976361
22.87097237601769
19.97841124373495
19.9784112437356
31.55807778216616
29.72791012012074
19.97841124373554
19.97841124373528
22.87097237601774
19.95500247976312
19.95500247976296
22.87097237601741
22.87097237601805
19.95500247976355
31.55807778216639
29.72791012012123
19.97841124373666
19.97841124373612
22.87097237601795
29.72791012012053
31.55807778216605
19.97841124373586
19.97841124373547
19.97841124373569
19.9784112437361
22.87097237601815
19.9550024797637
19.9550024797637
22.87097237601821
19.95500247976385
22.87097237601736
19.95500247976411
19.97841124373599
19.97841124373591
29.72791012012148
31.55807778216624
19.95500247976374
22.87097237601737
19.97841124373554
19.97841124373604
31.558077782166
29.72791012012055
19.97841124373558
19.97841124373629
22.87097237601819
19.95500247976433
19.95500247976363
22.87097237601757
22.87097237601747
19.95500247976385
31.55807778216627
29.7279101201206
19.97841124373606
19.97841124373575
22.87097237601732
29.72791012012086
31.55807778216681
19.97841124373565
19.97841124373558
19.97841124373571
19.97841124373589
22.87097237601842
19.95500247976432
19.95500247976376
22.87097237601782
22.87097237601806
19.95500247976396
30.05786341141414
29.42366332309059
30.81661920884806
29.61346658757376
19.95500247976402
22.87097237601796
29.42366332309092
30.05786341141456
29.61346658757342
30.81661920884651
29.99016935145648
29.99016935145609
22.87097237601796
19.9550024797635
19.95500247976419
22.87097237601852
19.97841124373604
19.9784112437358
19.97841124373569
19.97841124373586
22.87097237601834
19.95500247976422
29.58736111324525
31.44686408327262
22.87097237601793
19.95500247976394
31.5580777821667
29.72791012012102
19.97841124373608
19.97841124373571
19.97841124373649
19.95500247976385
22.87097237601829
31.4468640832714
29.58736111324396
19.95500247976381
22.87097237601844
29.72791012012138
31.5580777821667
19.97841124373593
19.97841124373672
19.97841124373539
22.87097237601803
19.95500247976391
19.95500247976415
22.87097237601852
22.87097237601744
19.9550024797637
19.95500247976387
22.87097237601808
19.97841124373575
19.97841124373543
19.97841124373556
19.97841124373545
19.97841124373616
19.97841124373638
22.87097237601824
19.95500247976339
29.72791012012109
31.55807778216716
22.87097237601802
19.95500247976456
31.55807778216637
29.72791012012129
19.97841124373629
19.97841124373593
19.97841124373653
19.95500247976344
22.87097237601769
31.55807778216614
29.72791012012105
19.95500247976407
22.87097237601815
29.72791012012119
31.55807778216575
19.9784112437361
19.97841124373571
19.97841124373509
22.87097237601749
19.95500247976387
19.95500247976368
22.87097237601796
22.8709723760177
19.95500247976445
19.95500247976381
22.87097237601775
19.9784112437348
19.97841124373533
19.97841124373571
19.97841124373573
19.97841124373567
19.97841124373543
22.87097237601754
19.95500247976478
29.72791012012095
31.55807778216589
22.87097237601757
19.95500247976342
31.55807778216591
29.7279101201208
19.97841124373608
19.9784112437356
19.97841124373571
19.95500247976409
22.8709723760186
31.55807778216647
29.72791012012081
19.95500247976335
22.87097237601769
29.72791012012084
31.55807778216616
19.97841124373548
19.97841124373584
19.97841124373545
22.87097237601792
19.95500247976376
19.95500247976376
22.87097237601739
22.87097237601787
19.95500247976415
19.95500247976445
22.87097237601889
19.97841124373614
19.97841124373567
19.9784112437355
19.97841124373627
19.97841124373627
19.97841124373597
22.87097237601784
19.95500247976385
29.72791012012088
31.55807778216589
22.87097237601809
19.95500247976344
31.55807778216645
29.72791012012109
19.97841124373601
19.97841124373614
19.97841124373578
19.95500247976366
22.87097237601774
31.55807778216598
29.72791012012112
19.95500247976454
22.87097237601732
29.72791012012148
31.55807778216524
19.97841124373591
19.97841124373685
19.97841124373604
22.87097237601798
19.95500247976448
19.95500247976385
22.87097237601865
22.87097237601852
19.95500247976432
19.95500247976378
22.87097237601779
19.97841124373552
19.9784112437358
19.97841124373567
19.9784112437358
19.97841124373623
19.97841124373636
22.87097237601806
19.95500247976342
29.7279101201211
31.55807778216658
22.87097237601888
19.95500247976428
31.55807778216648
29.7279101201217
19.97841124373595
19.9784112437356
19.97841124373582
19.95500247976389
22.87097237601751
31.55807778216531
29.72791012012065
19.95500247976413
22.87097237601811
29.72791012012156
31.55807778216689
19.97841124373593
19.97841124373661
19.97841124373547
22.87097237601863
19.95500247976405
19.95500247976348
22.87097237601728
22.87097237601754
19.95500247976359
19.95500247976335
22.87097237601713
19.97841124373603
19.97841124373575
19.97841124373638
19.97841124373571
19.97841124373569
19.97841124373515
22.87097237601898
19.95500247976372
29.72791012012067
31.55807778216641
22.87097237601767
19.95500247976441
31.55807778216667
29.72791012012159
19.97841124373597
19.97841124373498
19.9784112437361
19.95500247976374
22.87097237601759
31.55807778216683
29.72791012012135
19.95500247976361
22.87097237601754
29.72791012012099
31.5580777821667
19.97841124373528
19.97841124373595
19.97841124373556
22.87097237601732
19.9550024797635
19.95500247976352
22.87097237601737
22.8709723760179
19.95500247976437
19.95500247976482
22.87097237601834
19.97841124373625
19.97841124373573
19.97841124373561
19.97841124373537
19.97841124373651
19.97841124373535
22.87097237601799
19.95500247976318
29.72791012012166
31.5580777821663
22.87097237601767
19.95500247976458
31.55807778216717
29.72791012012093
19.97841124373674
19.97841124373575
19.97841124373657
19.95500247976327
22.87097237601715
31.5580777821676
29.7279101201217
19.9550024797643
22.87097237601767
29.72791012012135
31.55807778216637
19.97841124373548
19.9784112437361
19.97841124373588
22.87097237601883
19.95500247976446
19.9550024797648
22.87097237601845
22.87097237601811
19.95500247976396
19.95500247976411
22.87097237601752
19.97841124373541
19.97841124373448
19.97841124373625
19.97841124373629
19.97841124373561
19.97841124373634
22.87097237601767
19.9550024797642
29.72791012012211
31.55807778216705
22.87097237601767
19.95500247976411
31.55807778216596
29.72791012012055
19.97841124373539
19.9784112437358
19.97841124373643
19.95500247976359
22.8709723760176
31.55807778216692
29.72791012012156
19.95500247976344
22.87097237601713
29.72791012012139
31.55807778216658
19.97841124373548
19.97841124373653
19.9784112437361
22.87097237601834
19.95500247976409
19.95500247976355
22.87097237601754
22.87097237601787
19.95500247976415
19.95500247976374
22.87097237601799
19.97841124373561
19.97841124373599
19.97841124373604
19.97841124373597
19.97841124373692
19.97841124373565
22.87097237601721
19.95500247976448
29.72791012012146
31.55807778216586
22.87097237601785
19.95500247976352
32.24548672101587
30.47423535971317
19.97841124373509
19.97841124373474
19.97841124373552
19.95500247976461
22.87097237601719
31.55807778216726
29.72791012012195
19.95500247976387
22.87097237601889
30.47423535971344
32.24548672101812
19.97841124373597
19.97841124373584
19.97841124373634
22.87097237601739
19.9550024797645
19.9550024797637
22.87097237601785
22.87097237601827
19.95500247976374
19.95500247976381
22.87097237601728
19.97841124373582
19.97841124373586
22.87097237601772
19.97841124373535
22.87097237601695
19.95500247976335
19.9550024797643
22.87097237601752
30.74816183361466
30.74816183361446
19.95500247976327
22.87097237601782
22.8709723760177
19.95500247976379
30.74816183361465
30.74816183361321
19.97841124373573
19.97841124373576
22.87097237601725
19.955002479764
19.95500247976365
22.8709723760183
19.95500247976389
19.95500247976374
22.87097237601903
30.74816183361524
30.74816183361448
19.97841124373576
19.97841124373535
19.95500247976461
22.8709723760185
22.87097237601818
19.95500247976502
19.97841124373552
22.87097237601792
19.95500247976404
19.95500247976342
22.87097237601732
19.97841124373664
19.97841124373683
19.97841124373556
19.97841124373511
19.97841124373597
19.97841124373627
22.87097237601788
22.87097237601819
19.97841124373547
19.97841124373603
19.95500247976359
22.87097237601796
31.5580777821665
29.72791012012134
19.95500247976333
22.87097237601772
29.72791012012158
31.55807778216768
19.97841124373601
19.97841124373618
19.95500247976484
19.97841124373632
19.97841124373591
29.72791012012123
31.55807778216619
19.97841124373571
19.97841124373593
19.95500247976394
22.87097237601764
22.87097237601732
19.95500247976411
19.95500247976454
31.55807778216648
29.72791012012117
19.97841124373597
19.97841124373571
19.95500247976402
22.87097237601731
19.97841124373537
19.97841124373578
22.87097237601836
19.95500247976346
22.87097237601813
22.87097237601785
19.97841124373563
19.97841124373603
19.95500247976365
22.87097237601777
31.55807778216708
29.72791012012129
19.95500247976413
22.87097237601754
29.72791012012095
31.55807778216575
19.97841124373606
19.97841124373627
19.95500247976405
19.97841124373653
19.97841124373575
29.72791012012037
31.55807778216615
19.97841124373539
19.97841124373506
19.955002479764
22.87097237601764
22.87097237601785
19.95500247976391
19.9550024797637
31.55807778216737
29.7279101201208
19.9784112437367
19.97841124373582
19.95500247976361
22.87097237601832
19.97841124373506
19.97841124373576
22.87097237601721
19.95500247976374
19.95500247976359
22.87097237601836
19.95500247976424
19.97841124373575
19.97841124373599
29.72791012012091
31.55807778216603
19.95500247976342
22.8709723760187
19.97841124373651
19.97841124373647
31.55807778216636
29.72791012012075
19.97841124373539
19.97841124373567
22.87097237601844
19.95500247976394
19.95500247976374
22.8709723760186
22.87097237601772
19.95500247976318
31.55807778216772
29.72791012012139
19.97841124373647
19.97841124373556
22.87097237601731
29.72791012012123
31.5580777821665
19.97841124373565
19.97841124373561
19.97841124373614
19.97841124373554
22.87097237601839
19.95500247976446
19.95500247976383
22.87097237601803
19.95500247976469
22.8709723760183
19.9550024797645
19.97841124373623
19.9784112437355
29.72791012012068
31.55807778216485
19.95500247976374
22.87097237601815
19.97841124373582
19.97841124373625
31.55807778216642
29.72791012012128
19.97841124373573
19.97841124373556
22.87097237601821
19.95500247976413
19.95500247976368
22.87097237601705
22.87097237601845
19.95500247976452
31.55807778216706
29.72791012012158
19.97841124373655
19.97841124373646
22.87097237601739
29.72791012012128
31.55807778216631
19.97841124373599
19.97841124373677
19.97841124373539
19.9784112437355
22.8709723760183
19.95500247976379
19.95500247976381
22.87097237601719
19.95500247976352
22.87097237601816
19.95500247976365
19.97841124373632
19.97841124373509
29.58736111324463
31.44686408327206
19.95500247976342
22.8709723760183
19.97841124373595
19.97841124373655
31.44686408327138
29.58736111324403
19.97841124373563
19.97841124373573
22.87097237601796
19.95500247976413
19.95500247976357
22.87097237601762
22.87097237601725
19.95500247976379
31.55807778216656
29.72791012012132
19.97841124373634
19.97841124373528
22.87097237601764
29.72791012012093
31.55807778216608
19.97841124373578
19.97841124373664
19.97841124373589
19.97841124373526
22.87097237601769
19.95500247976344
19.95500247976348
22.87097237601728
22.87097237601774
22.87097237601805
19.97841124373513
19.97841124373618
19.95500247976402
22.87097237601815
31.55807778216617
29.72791012012054
19.95500247976499
22.87097237601775
29.72791012012082
31.55807778216631
19.97841124373582
19.97841124373569
19.95500247976368
19.97841124373619
19.97841124373606
29.72791012012068
31.55807778216672
19.97841124373548
19.97841124373584
19.95500247976424
22.87097237601836
22.87097237601772
19.95500247976389
19.95500247976482
31.55807778216656
29.72791012012156
19.97841124373513
19.97841124373498
19.95500247976532
22.87097237601857
19.97841124373537
19.97841124373532
22.87097237601732
19.95500247976324
22.87097237601744
19.95500247976422
22.87097237601845
29.42366332309024
30.05786341141437
29.61346658757403
30.81661920884773
19.95500247976365
30.05786341141449
29.42366332309052
30.81661920884705
29.61346658757359
29.99016935145649
29.99016935145643
19.95500247976346
22.87097237601779
22.87097237601882
19.95500247976437
22.87097237601829
22.87097237601816
19.97841124373597
19.97841124373493
19.95500247976385
22.87097237601799
31.55807778216556
29.72791012012017
19.95500247976331
22.87097237601757
29.72791012012093
31.55807778216678
19.97841124373608
19.97841124373603
19.95500247976465
19.97841124373575
19.97841124373508
29.72791012012022
31.55807778216673
19.97841124373521
19.9784112437356
19.95500247976365
22.87097237601857
22.87097237601764
19.95500247976359
19.9550024797645
31.55807778216647
29.72791012012206
19.97841124373547
19.97841124373569
19.95500247976428
22.8709723760186
19.97841124373589
19.9784112437364
22.87097237601765
19.95500247976366
22.87097237601795
22.87097237601849
19.97841124373554
19.97841124373618
19.95500247976435
22.87097237601872
31.44686408327229
29.58736111324427
19.95500247976394
22.87097237601726
29.72791012012045
31.55807778216574
19.97841124373601
19.97841124373614
19.95500247976337
19.97841124373603
19.97841124373548
29.58736111324464
31.44686408327198
19.97841124373599
19.97841124373603
19.95500247976392
22.87097237601784
22.87097237601863
19.9550024797648
19.95500247976379
31.55807778216711
29.72791012012128
19.97841124373618
19.97841124373593
19.95500247976374
22.8709723760177
19.9784112437361
19.97841124373603
22.87097237601785
19.95500247976333
19.95500247976299
22.87097237601859
19.95500247976404
19.9784112437355
19.97841124373603
29.72791012012114
31.55807778216595
19.95500247976413
22.87097237601839
19.97841124373521
19.97841124373599
31.55807778216731
29.72791012012102
19.97841124373612
19.97841124373519
22.87097237601806
19.9550024797643
19.95500247976415
22.87097237601784
22.87097237601744
19.95500247976365
32.24548672101731
30.4742353597131
19.97841124373565
19.97841124373586
22.87097237601784
30.47423535971289
32.24548672101794
19.97841124373539
19.97841124373509
19.97841124373576
19.97841124373621
22.87097237601749
19.95500247976392
19.95500247976404
22.87097237601849
19.95500247976409
22.87097237601849
19.95500247976415
19.97841124373618
19.9784112437353
29.72791012012095
31.55807778216614
19.95500247976387
22.87097237601742
19.97841124373547
19.97841124373578
31.55807778216641
29.72791012012046
19.97841124373638
19.97841124373614
22.87097237601815
19.95500247976348
19.95500247976404
22.87097237601795
22.87097237601844
19.95500247976443
31.55807778216589
29.727910120121
19.97841124373584
19.97841124373563
22.87097237601827
29.72791012012115
31.5580777821665
19.97841124373603
19.97841124373657
19.97841124373649
19.9784112437361
22.87097237601793
19.95500247976409
19.9550024797642
22.87097237601802
19.95500247976376
22.87097237601726
19.9550024797634
19.97841124373612
19.97841124373597
29.72791012012115
31.55807778216645
19.95500247976415
22.87097237601739
19.97841124373554
19.97841124373651
31.55807778216683
29.72791012012093
19.97841124373584
19.97841124373554
22.87097237601857
19.95500247976426
19.9550024797643
22.87097237601845
22.87097237601815
19.95500247976458
31.55807778216528
29.7279101201203
19.97841124373593
19.97841124373599
22.87097237601863
29.72791012012114
31.55807778216676
19.97841124373597
19.97841124373659
19.97841124373593
19.97841124373537
22.87097237601787
19.95500247976454
19.95500247976383
22.87097237601718
19.95500247976374
22.87097237601855
19.95500247976404
30.05786341141476
29.42366332309102
30.8166192088467
29.61346658757387
22.87097237601842
29.42366332309125
30.05786341141449
29.61346658757375
30.81661920884648
29.99016935145643
29.99016935145643
22.87097237601802
19.95500247976387
19.95500247976305
22.87097237601755
14.41624152334422
14.4162415233441
14.41624152334407
14.41624152334435
14.41624152334435
14.41624152334402
14.416241523344
14.4162415233441
14.41624152334402
14.41624152334394
14.4162415233444
14.41624152334402
14.416241523344
14.41624152334438
14.41624152334425
14.41624152334427
14.41624152334448
14.41624152334402
14.4162415233441
14.41624152334402
14.41624152334422
14.41624152334412
14.41624152334445
14.416241523344
14.4162415233441
14.41624152334427
14.416241523344
14.41624152334394
14.41624152334412
14.416241523344
14.41624152334427
14.41624152334443
14.41624152334404
14.41624152334402
14.4162415233441
14.4162415233445
14.41624152334407
14.41624152334392
14.41624152334404
14.41624152334448
14.4162415233442
14.41624152334422
14.41624152334389
14.41624152334402
14.41624152334412
14.41624152334407
14.41624152334387
14.41624152334422
14.41624152334433
14.4162415233441
14.41624152334397
14.41624152334422
14.41624152334425
14.4162415233443
14.4162415233441
14.4162415233443
14.41624152334417
14.41624152334448
14.41624152334417
14.41624152334415
14.41624152334453
14.41624152334466
14.4162415233443
14.41624152334412
14.416241523344
14.41624152334445
14.41624152334435
14.41624152334445
14.41624152334422
14.41624152334422
14.41624152334427
14.41624152334425
14.41624152334415
14.41624152334412
14.4162415233441
14.41624152334443
14.41624152334433
14.41624152334379
14.41624152334427
14.41624152334404
14.41624152334427
16.52166159230464
14.41624152334404
14.41624152334415
14.41624152334463
14.41624152334435
14.41624152334407
14.41624152334433
14.41624152334412
14.41624152334433
14.416241523344
14.41624152334402
14.416241523344
14.41624152334448
14.41624152334384
14.41624152334402
14.41624152334394
14.41624152334404
14.41624152334394
16.52166159230464
14.4162415233441
14.416241523344
14.41624152334407
14.41624152334397
14.4162415233444
14.41624152334433
14.41624152334417
14.41624152334412
14.4162415233441
14.41624152334404
14.41624152334394
14.416241523344
14.41624152334397
14.4162415233442
14.4162415233443
14.41624152334443
14.41624152334404
14.4162415233443
14.4162415233442
14.41624152334438
14.41624152334407
14.41624152334415
14.41624152334433
14.41624152334433
14.41624152334397
14.41624152334389
14.4162415233441
14.41624152334445
14.41624152334415
14.416241523344
14.41624152334397
14.41624152334412
14.41624152334394
14.41624152334402
14.4162415233441
14.41624152334404
14.41624152334402
14.4162415233441
14.41624152334404
14.41624152334392
14.41624152334392
14.41624152334415
14.41624152334461
14.41624152334433
14.41624152334417
14.41624152334402
14.41624152334466
14.41624152334394
14.41624152334461
14.4162415233441
14.4162415233444
14.41624152334415
14.4162415233443
14.41624152334427
14.41624152334443
14.41624152334438
14.41624152334433
14.41624152334422
14.41624152334422
14.41624152334433
14.41624152334425
14.41624152334474
14.41624152334438
14.41624152334458
14.4162415233445
14.41624152334479
14.41624152334435
14.4162415233441
14.41624152334474
14.41624152334435
14.41624152334438
14.41624152334433
14.41624152334412
14.41624152334422
14.4162415233445
14.41624152334456
14.416241523344
14.41624152334443
14.41624152334415
14.41624152334402
14.41624152334479
14.41624152334427
14.41624152334433
14.4162415233443
14.41624152334427
14.41624152334443
14.41624152334456
14.41624152334435
14.41624152334397
14.41624152334394
14.41624152334422
14.41624152334466
14.41624152334412
14.41624152334427
14.41624152334417
14.41624152334433
14.41624152334425
14.41624152334417
14.41624152334415
14.4162415233443
14.41624152334453
14.41624152334438
14.4162415233441
14.41624152334387
14.41624152334397
14.4162415233441
14.41624152334415
14.41624152334407
14.41624152334427
14.41624152334415
14.4162415233444
14.41624152334415
14.41624152334425
14.4162415233444
14.41624152334484
14.41624152334427
14.41624152334404
14.41624152334415
14.41624152334461
14.41624152334384
14.41624152334435
14.41624152334427
14.41624152334435
14.41624152334448
14.41624152334392
14.41624152334394
14.41624152334404
14.41624152334417
14.41624152334402
14.4162415233442
14.4162415233443
14.41624152334427
14.41624152334445
14.4162415233441
14.41624152334427
14.4162415233443
14.41624152334412
14.41624152334422
14.41624152334422
14.41624152334427
14.41624152334392
14.41624152334433
14.41624152334394
14.41624152334422
14.41624152334422
14.41624152334448
14.41624152334402
14.41624152334412
14.4162415233442
14.41624152334445
14.416241523344
14.41624152334435
14.4162415233442
14.41624152334404
14.41624152334417
14.4162415233445
14.41624152334453
14.41624152334433
14.4162415233442
14.41624152334397
14.41624152334461
14.41624152334392
14.4162415233441
14.41624152334402
14.416241523344
14.4162415233444
14.41624152334435
14.416241523344
14.41624152334404
14.41624152334422
14.41624152334435
1.207418269725733e-06
1.478779333471098e-06
1.207418269725733e-06
1.207418269725733e-06
1.207418269725733e-06
1.207418269725733e-06
1.207418269725733e-06
1.207418269725733e-06
1.207418269725733e-06
14.41624152334371
14.41624152334438
1.207418269725733e-06
1.207418269725733e-06
1.207418269725733e-06
1.207418269725733e-06
1.207418269725733e-06
1.207418269725733e-06
1.207418269725733e-06
1.207418269725733e-06
1.207418269725733e-06
14.41624152334461
14.41624152334407