/*--------------------------------*- C++ -*----------------------------------*\
| =========                 |                                                 |
| \\      /  F ield         | OpenFOAM: The Open Source CFD Toolbox           |
|  \\    /   O peration     | Version:  v2412                                 |
|   \\  /    A nd           | Website:  www.openfoam.com                      |
|    \\/     M anipulation  |                                                 |
\*---------------------------------------------------------------------------*/
FoamFile
{
    version     2.0;
    format      ascii;
    class       dictionary;
    object      optimisationDict;
}
// * * * * * * * * * * * * * * * * * * * * * * * * * * * * * * * * * * * * * //

optimisationManager steadyOptimisation;

primalSolvers
{
    op1
    {
        active                 true;
        type                   incompressible;
        solver                 simple;
        solutionControls
        {
            nIters        500;
            nInitialIters 1000;
            residualControl
            {
                "p.*"       5.e-7;
                "U.*"       5.e-7;
                "nu.*"      5.e-7;
            }
        }
    }
}

adjointManagers
{
    adjManager1
    {
        primalSolver             op1;
        adjointSolvers
        {
            as1
            {
                // choose adjoint solver
                //----------------------
                active                 true;
                type                   incompressible;
                solver                 adjointSimple;
                isConstraint           true;
                // manage objectives
                //------------------
                objectives
                {
                    type  incompressible;
                    objectiveNames
                    {
                        losses
                        {
                            weight          1.; 
                            type            PtLosses;
                            patches         (inlet "outlet.*");
                            normalise       true;
                            target          0.0027;
                            normFactor      0.005;
                        }
                        mass
                        {
                            weight            0.; 
                            type              flowRatePartition;
                            inletPatches      (inlet);
                            outletPatches     (outlet outlet-right);
                            targetFractions   (0.5 0.5);
                        }
                    }
                }
                // ATC treatment
                //--------------
                ATCModel
                {
                    ATCModel        standard;
                }
                // solution control
                //------------------
                solutionControls
                {
                    nIters        500;
                    nInitialIters 1000;
                    residualControl
                    {
                        "pa.*"       5.e-7;
                        "Ua.*"       5.e-7;
                        "nua.*"      5.e-7;
                    }
                }
            }
            uniformity
            {
                // choose adjoint solver
                //----------------------
                active                 true;
                type                   incompressible;
                solver                 adjointSimple;
                // manage objectives
                //------------------
                objectives
                {
                    type  incompressible;
                    objectiveNames
                    {
                        uniformity
                        {
                            weight            1.; 
                            type              uniformityPatch;
                            patches           (outlet outlet-right);
                            normalise         true;
                        }
                    }
                }
                // ATC treatment
                //--------------
                ATCModel
                {
                    ATCModel        standard;
                }
                // solution control
                //------------------
                solutionControls
                {
                    nIters        500;
                    nInitialIters 1000;
                    residualControl
                    {
                        "pa.*"       5.e-7;
                        "Ua.*"       5.e-7;
                        "nua.*"      5.e-7;
                    }
                }
            }
            vol
            {
                // choose adjoint solver
                //----------------------
                active                 true;
                type                   null;
                isConstraint           true;
                // manage objectives
                //------------------
                objectives
                {
                    type  geometric;
                    objectiveNames
                    {
                        vol
                        {
                            weight          1.; 
                            type            topOVolume;
                            percentage      0.462;
                        }
                    }
                }
            }
        }
    }
}

optimisation
{
    designVariables
    {
        type topO;
        sensitivityType topO;
        fixedZeroPorousZones   (IEntranceSet OEntranceSet OREntranceSet);
        regularisation
        {
            regularise     true;
            growFromWalls  true;
            meanRadiusMult 20;
            function       tanh;
            b              40;
        }
        betaMax            50;
        maxInitChange      0.2;
    }
    updateMethod
    {
        method ISQP;
        targetConstraintReduction 0.1;
        preconditioner ShermanMorrison;
    }
}

// ************************************************************************* //
